*MOLTIPLICATORE CARRY SAVE

.option filetype=ascii

.INCLUDE ST65LIKE_cell_library_v2020_1.net
.INCLUDE 16nm_HP.pm
.INCLUDE param.net

.subckt AND_ARRAY_SUB	0 Vdd out0 out1 out2 out3 out4 out5 out6 out7 out8 out9 out10 out11 out12 out13 out14 out15 out16 out17 out18 out19 out20 out21 out22 out23 out24 out25 out26 out27 out28 out29 out30 out31 out32 out33 out34 out35 out36 out37 out38 out39 out40 out41 out42 out43 out44 out45 out46 out47 out48 out49 out50 out51 out52 out53 out54 out55 out56 out57 out58 out59 out60 out61 out62 out63 x0 x1 x2 x3 x4 x5 x6 x7 x8 x9 x10 x11 x12 x13 x14 x15 x16 x17 x18 x19 x20 x21 x22 x23 x24 x25 x26 x27 x28 x29 x30 x31 x32 x33 x34 x35 x36 x37 x38 x39 x40 x41 x42 x43 x44 x45 x46 x47 x48 x49 x50 x51 x52 x53 x54 x55 x56 x57 x58 x59 x60 x61 x62 x63 y	XX=1
xand0	0 Vdd out0 x0 y	AND2_SUB XX=XXX
xand1	0 Vdd out1 x1 y	AND2_SUB XX=XXX
xand2	0 Vdd out2 x2 y	AND2_SUB XX=XXX
xand3	0 Vdd out3 x3 y	AND2_SUB XX=XXX
xand4	0 Vdd out4 x4 y	AND2_SUB XX=XXX
xand5	0 Vdd out5 x5 y	AND2_SUB XX=XXX
xand6	0 Vdd out6 x6 y	AND2_SUB XX=XXX
xand7	0 Vdd out7 x7 y	AND2_SUB XX=XXX
xand8	0 Vdd out8 x8 y	AND2_SUB XX=XXX
xand9	0 Vdd out9 x9 y	AND2_SUB XX=XXX
xand10	0 Vdd out10 x10 y	AND2_SUB XX=XXX
xand11	0 Vdd out11 x11 y	AND2_SUB XX=XXX
xand12	0 Vdd out12 x12 y	AND2_SUB XX=XXX
xand13	0 Vdd out13 x13 y	AND2_SUB XX=XXX
xand14	0 Vdd out14 x14 y	AND2_SUB XX=XXX
xand15	0 Vdd out15 x15 y	AND2_SUB XX=XXX
xand16	0 Vdd out16 x16 y	AND2_SUB XX=XXX
xand17	0 Vdd out17 x17 y	AND2_SUB XX=XXX
xand18	0 Vdd out18 x18 y	AND2_SUB XX=XXX
xand19	0 Vdd out19 x19 y	AND2_SUB XX=XXX
xand20	0 Vdd out20 x20 y	AND2_SUB XX=XXX
xand21	0 Vdd out21 x21 y	AND2_SUB XX=XXX
xand22	0 Vdd out22 x22 y	AND2_SUB XX=XXX
xand23	0 Vdd out23 x23 y	AND2_SUB XX=XXX
xand24	0 Vdd out24 x24 y	AND2_SUB XX=XXX
xand25	0 Vdd out25 x25 y	AND2_SUB XX=XXX
xand26	0 Vdd out26 x26 y	AND2_SUB XX=XXX
xand27	0 Vdd out27 x27 y	AND2_SUB XX=XXX
xand28	0 Vdd out28 x28 y	AND2_SUB XX=XXX
xand29	0 Vdd out29 x29 y	AND2_SUB XX=XXX
xand30	0 Vdd out30 x30 y	AND2_SUB XX=XXX
xand31	0 Vdd out31 x31 y	AND2_SUB XX=XXX
xand32	0 Vdd out32 x32 y	AND2_SUB XX=XXX
xand33	0 Vdd out33 x33 y	AND2_SUB XX=XXX
xand34	0 Vdd out34 x34 y	AND2_SUB XX=XXX
xand35	0 Vdd out35 x35 y	AND2_SUB XX=XXX
xand36	0 Vdd out36 x36 y	AND2_SUB XX=XXX
xand37	0 Vdd out37 x37 y	AND2_SUB XX=XXX
xand38	0 Vdd out38 x38 y	AND2_SUB XX=XXX
xand39	0 Vdd out39 x39 y	AND2_SUB XX=XXX
xand40	0 Vdd out40 x40 y	AND2_SUB XX=XXX
xand41	0 Vdd out41 x41 y	AND2_SUB XX=XXX
xand42	0 Vdd out42 x42 y	AND2_SUB XX=XXX
xand43	0 Vdd out43 x43 y	AND2_SUB XX=XXX
xand44	0 Vdd out44 x44 y	AND2_SUB XX=XXX
xand45	0 Vdd out45 x45 y	AND2_SUB XX=XXX
xand46	0 Vdd out46 x46 y	AND2_SUB XX=XXX
xand47	0 Vdd out47 x47 y	AND2_SUB XX=XXX
xand48	0 Vdd out48 x48 y	AND2_SUB XX=XXX
xand49	0 Vdd out49 x49 y	AND2_SUB XX=XXX
xand50	0 Vdd out50 x50 y	AND2_SUB XX=XXX
xand51	0 Vdd out51 x51 y	AND2_SUB XX=XXX
xand52	0 Vdd out52 x52 y	AND2_SUB XX=XXX
xand53	0 Vdd out53 x53 y	AND2_SUB XX=XXX
xand54	0 Vdd out54 x54 y	AND2_SUB XX=XXX
xand55	0 Vdd out55 x55 y	AND2_SUB XX=XXX
xand56	0 Vdd out56 x56 y	AND2_SUB XX=XXX
xand57	0 Vdd out57 x57 y	AND2_SUB XX=XXX
xand58	0 Vdd out58 x58 y	AND2_SUB XX=XXX
xand59	0 Vdd out59 x59 y	AND2_SUB XX=XXX
xand60	0 Vdd out60 x60 y	AND2_SUB XX=XXX
xand61	0 Vdd out61 x61 y	AND2_SUB XX=XXX
xand62	0 Vdd out62 x62 y	AND2_SUB XX=XXX
xand63	0 Vdd out63 x63 y	AND2_SUB XX=XXX
.ends 

.subckt ADD_ARRAY_SUB	0 Vdd sum0 sum1 sum2 sum3 sum4 sum5 sum6 sum7 sum8 sum9 sum10 sum11 sum12 sum13 sum14 sum15 sum16 sum17 sum18 sum19 sum20 sum21 sum22 sum23 sum24 sum25 sum26 sum27 sum28 sum29 sum30 sum31 sum32 sum33 sum34 sum35 sum36 sum37 sum38 sum39 sum40 sum41 sum42 sum43 sum44 sum45 sum46 sum47 sum48 sum49 sum50 sum51 sum52 sum53 sum54 sum55 sum56 sum57 sum58 sum59 sum60 sum61 sum62 sum63  Cout0  Cout1  Cout2  Cout3  Cout4  Cout5  Cout6  Cout7  Cout8  Cout9  Cout10  Cout11  Cout12  Cout13  Cout14  Cout15  Cout16  Cout17  Cout18  Cout19  Cout20  Cout21  Cout22  Cout23  Cout24  Cout25  Cout26  Cout27  Cout28  Cout29  Cout30  Cout31  Cout32  Cout33  Cout34  Cout35  Cout36  Cout37  Cout38  Cout39  Cout40  Cout41  Cout42  Cout43  Cout44  Cout45  Cout46  Cout47  Cout48  Cout49  Cout50  Cout51  Cout52  Cout53  Cout54  Cout55  Cout56  Cout57  Cout58  Cout59  Cout60  Cout61  Cout62  Cout63 a0 a1 a2 a3 a4 a5 a6 a7 a8 a9 a10 a11 a12 a13 a14 a15 a16 a17 a18 a19 a20 a21 a22 a23 a24 a25 a26 a27 a28 a29 a30 a31 a32 a33 a34 a35 a36 a37 a38 a39 a40 a41 a42 a43 a44 a45 a46 a47 a48 a49 a50 a51 a52 a53 a54 a55 a56 a57 a58 a59 a60 a61 a62 a63 b0 b1 b2 b3 b4 b5 b6 b7 b8 b9 b10 b11 b12 b13 b14 b15 b16 b17 b18 b19 b20 b21 b22 b23 b24 b25 b26 b27 b28 b29 b30 b31 b32 b33 b34 b35 b36 b37 b38 b39 b40 b41 b42 b43 b44 b45 b46 b47 b48 b49 b50 b51 b52 b53 b54 b55 b56 b57 b58 b59 b60 b61 b62 b63 	XX=1
xadd0	 0 vdd sum0 cout0 cin0 b0 a0	 FA_SUB XX=XXX
xadd1	 0 vdd sum1 cout1 cin1 b1 a1	 FA_SUB XX=XXX
xadd2	 0 vdd sum2 cout2 cin2 b2 a2	 FA_SUB XX=XXX
xadd3	 0 vdd sum3 cout3 cin3 b3 a3	 FA_SUB XX=XXX
xadd4	 0 vdd sum4 cout4 cin4 b4 a4	 FA_SUB XX=XXX
xadd5	 0 vdd sum5 cout5 cin5 b5 a5	 FA_SUB XX=XXX
xadd6	 0 vdd sum6 cout6 cin6 b6 a6	 FA_SUB XX=XXX
xadd7	 0 vdd sum7 cout7 cin7 b7 a7	 FA_SUB XX=XXX
xadd8	 0 vdd sum8 cout8 cin8 b8 a8	 FA_SUB XX=XXX
xadd9	 0 vdd sum9 cout9 cin9 b9 a9	 FA_SUB XX=XXX
xadd10	 0 vdd sum10 cout10 cin10 b10 a10	 FA_SUB XX=XXX
xadd11	 0 vdd sum11 cout11 cin11 b11 a11	 FA_SUB XX=XXX
xadd12	 0 vdd sum12 cout12 cin12 b12 a12	 FA_SUB XX=XXX
xadd13	 0 vdd sum13 cout13 cin13 b13 a13	 FA_SUB XX=XXX
xadd14	 0 vdd sum14 cout14 cin14 b14 a14	 FA_SUB XX=XXX
xadd15	 0 vdd sum15 cout15 cin15 b15 a15	 FA_SUB XX=XXX
xadd16	 0 vdd sum16 cout16 cin16 b16 a16	 FA_SUB XX=XXX
xadd17	 0 vdd sum17 cout17 cin17 b17 a17	 FA_SUB XX=XXX
xadd18	 0 vdd sum18 cout18 cin18 b18 a18	 FA_SUB XX=XXX
xadd19	 0 vdd sum19 cout19 cin19 b19 a19	 FA_SUB XX=XXX
xadd20	 0 vdd sum20 cout20 cin20 b20 a20	 FA_SUB XX=XXX
xadd21	 0 vdd sum21 cout21 cin21 b21 a21	 FA_SUB XX=XXX
xadd22	 0 vdd sum22 cout22 cin22 b22 a22	 FA_SUB XX=XXX
xadd23	 0 vdd sum23 cout23 cin23 b23 a23	 FA_SUB XX=XXX
xadd24	 0 vdd sum24 cout24 cin24 b24 a24	 FA_SUB XX=XXX
xadd25	 0 vdd sum25 cout25 cin25 b25 a25	 FA_SUB XX=XXX
xadd26	 0 vdd sum26 cout26 cin26 b26 a26	 FA_SUB XX=XXX
xadd27	 0 vdd sum27 cout27 cin27 b27 a27	 FA_SUB XX=XXX
xadd28	 0 vdd sum28 cout28 cin28 b28 a28	 FA_SUB XX=XXX
xadd29	 0 vdd sum29 cout29 cin29 b29 a29	 FA_SUB XX=XXX
xadd30	 0 vdd sum30 cout30 cin30 b30 a30	 FA_SUB XX=XXX
xadd31	 0 vdd sum31 cout31 cin31 b31 a31	 FA_SUB XX=XXX
xadd32	 0 vdd sum32 cout32 cin32 b32 a32	 FA_SUB XX=XXX
xadd33	 0 vdd sum33 cout33 cin33 b33 a33	 FA_SUB XX=XXX
xadd34	 0 vdd sum34 cout34 cin34 b34 a34	 FA_SUB XX=XXX
xadd35	 0 vdd sum35 cout35 cin35 b35 a35	 FA_SUB XX=XXX
xadd36	 0 vdd sum36 cout36 cin36 b36 a36	 FA_SUB XX=XXX
xadd37	 0 vdd sum37 cout37 cin37 b37 a37	 FA_SUB XX=XXX
xadd38	 0 vdd sum38 cout38 cin38 b38 a38	 FA_SUB XX=XXX
xadd39	 0 vdd sum39 cout39 cin39 b39 a39	 FA_SUB XX=XXX
xadd40	 0 vdd sum40 cout40 cin40 b40 a40	 FA_SUB XX=XXX
xadd41	 0 vdd sum41 cout41 cin41 b41 a41	 FA_SUB XX=XXX
xadd42	 0 vdd sum42 cout42 cin42 b42 a42	 FA_SUB XX=XXX
xadd43	 0 vdd sum43 cout43 cin43 b43 a43	 FA_SUB XX=XXX
xadd44	 0 vdd sum44 cout44 cin44 b44 a44	 FA_SUB XX=XXX
xadd45	 0 vdd sum45 cout45 cin45 b45 a45	 FA_SUB XX=XXX
xadd46	 0 vdd sum46 cout46 cin46 b46 a46	 FA_SUB XX=XXX
xadd47	 0 vdd sum47 cout47 cin47 b47 a47	 FA_SUB XX=XXX
xadd48	 0 vdd sum48 cout48 cin48 b48 a48	 FA_SUB XX=XXX
xadd49	 0 vdd sum49 cout49 cin49 b49 a49	 FA_SUB XX=XXX
xadd50	 0 vdd sum50 cout50 cin50 b50 a50	 FA_SUB XX=XXX
xadd51	 0 vdd sum51 cout51 cin51 b51 a51	 FA_SUB XX=XXX
xadd52	 0 vdd sum52 cout52 cin52 b52 a52	 FA_SUB XX=XXX
xadd53	 0 vdd sum53 cout53 cin53 b53 a53	 FA_SUB XX=XXX
xadd54	 0 vdd sum54 cout54 cin54 b54 a54	 FA_SUB XX=XXX
xadd55	 0 vdd sum55 cout55 cin55 b55 a55	 FA_SUB XX=XXX
xadd56	 0 vdd sum56 cout56 cin56 b56 a56	 FA_SUB XX=XXX
xadd57	 0 vdd sum57 cout57 cin57 b57 a57	 FA_SUB XX=XXX
xadd58	 0 vdd sum58 cout58 cin58 b58 a58	 FA_SUB XX=XXX
xadd59	 0 vdd sum59 cout59 cin59 b59 a59	 FA_SUB XX=XXX
xadd60	 0 vdd sum60 cout60 cin60 b60 a60	 FA_SUB XX=XXX
xadd61	 0 vdd sum61 cout61 cin61 b61 a61	 FA_SUB XX=XXX
xadd62	 0 vdd sum62 cout62 cin62 b62 a62	 FA_SUB XX=XXX
xadd63	 0 vdd sum63 cout63 cin63 b63 a63	 FA_SUB XX=XXX
.ends 

.subckt MCS_SUB	0 Vdd out0 out1 out2 out3 out4 out5 out6 out7 out8 out9 out10 out11 out12 out13 out14 out15 out16 out17 out18 out19 out20 out21 out22 out23 out24 out25 out26 out27 out28 out29 out30 out31 out32 out33 out34 out35 out36 out37 out38 out39 out40 out41 out42 out43 out44 out45 out46 out47 out48 out49 out50 out51 out52 out53 out54 out55 out56 out57 out58 out59 out60 out61 out62 out63 x0 x1 x2 x3 x4 x5 x6 x7 x8 x9 x10 x11 x12 x13 x14 x15 x16 x17 x18 x19 x20 x21 x22 x23 x24 x25 x26 x27 x28 x29 x30 x31 x32 x33 x34 x35 x36 x37 x38 x39 x40 x41 x42 x43 x44 x45 x46 x47 x48 x49 x50 x51 x52 x53 x54 x55 x56 x57 x58 x59 x60 x61 x62 x63 y0 y1 y2 y3 y4 y5 y6 y7 y8 y9 y10 y11 y12 y13 y14 y15 y16 y17 y18 y19 y20 y21 y22 y23 y24 y25 y26 y27 y28 y29 y30 y31 y32 y33 y34 y35 y36 y37 y38 y39 y40 y41 y42 y43 y44 y45 y46 y47 y48 y49 y50 y51 y52 y53 y54 y55 y56 y57 y58 y59 y60 y61 y62 y63 	XX=1
xand_Level0	 0 vdd	z0 0out1 0out2 0out3 0out4 0out5 0out6 0out7 0out8 0out9 0out10 0out11 0out12 0out13 0out14 0out15 0out16 0out17 0out18 0out19 0out20 0out21 0out22 0out23 0out24 0out25 0out26 0out27 0out28 0out29 0out30 0out31 0out32 0out33 0out34 0out35 0out36 0out37 0out38 0out39 0out40 0out41 0out42 0out43 0out44 0out45 0out46 0out47 0out48 0out49 0out50 0out51 0out52 0out53 0out54 0out55 0out56 0out57 0out58 0out59 0out60 0out61 0out62 0out63 0out64 	x0 x1 x2 x3 x4 x5 x6 x7 x8 x9 x10 x11 x12 x13 x14 x15 x16 x17 x18 x19 x20 x21 x22 x23 x24 x25 x26 x27 x28 x29 x30 x31 x32 x33 x34 x35 x36 x37 x38 x39 x40 x41 x42 x43 x44 x45 x46 x47 x48 x49 x50 x51 x52 x53 x54 x55 x56 x57 x58 x59 x60 x61 x62 x63 	y0	AND_ARRAY_SUB XX = XXX
xand_Level1	 0 vdd	1out0 1out1 1out2 1out3 1out4 1out5 1out6 1out7 1out8 1out9 1out10 1out11 1out12 1out13 1out14 1out15 1out16 1out17 1out18 1out19 1out20 1out21 1out22 1out23 1out24 1out25 1out26 1out27 1out28 1out29 1out30 1out31 1out32 1out33 1out34 1out35 1out36 1out37 1out38 1out39 1out40 1out41 1out42 1out43 1out44 1out45 1out46 1out47 1out48 1out49 1out50 1out51 1out52 1out53 1out54 1out55 1out56 1out57 1out58 1out59 1out60 1out61 1out62 1out63 	x0 x1 x2 x3 x4 x5 x6 x7 x8 x9 x10 x11 x12 x13 x14 x15 x16 x17 x18 x19 x20 x21 x22 x23 x24 x25 x26 x27 x28 x29 x30 x31 x32 x33 x34 x35 x36 x37 x38 x39 x40 x41 x42 x43 x44 x45 x46 x47 x48 x49 x50 x51 x52 x53 x54 x55 x56 x57 x58 x59 x60 x61 x62 x63 	y1	AND_ARRAY_SUB XX = XXX
xadd_Level2	 0 vdd	z1 2sum1 2sum2 2sum3 2sum4 2sum5 2sum6 2sum7 2sum8 2sum9 2sum10 2sum11 2sum12 2sum13 2sum14 2sum15 2sum16 2sum17 2sum18 2sum19 2sum20 2sum21 2sum22 2sum23 2sum24 2sum25 2sum26 2sum27 2sum28 2sum29 2sum30 2sum31 2sum32 2sum33 2sum34 2sum35 2sum36 2sum37 2sum38 2sum39 2sum40 2sum41 2sum42 2sum43 2sum44 2sum45 2sum46 2sum47 2sum48 2sum49 2sum50 2sum51 2sum52 2sum53 2sum54 2sum55 2sum56 2sum57 2sum58 2sum59 2sum60 2sum61 2sum62 	2cout0 2cout1 2cout2 2cout3 2cout4 2cout5 2cout6 2cout7 2cout8 2cout9 2cout10 2cout11 2cout12 2cout13 2cout14 2cout15 2cout16 2cout17 2cout18 2cout19 2cout20 2cout21 2cout22 2cout23 2cout24 2cout25 2cout26 2cout27 2cout28 2cout29 2cout30 2cout31 2cout32 2cout33 2cout34 2cout35 2cout36 2cout37 2cout38 2cout39 2cout40 2cout41 2cout42 2cout43 2cout44 2cout45 2cout46 2cout47 2cout48 2cout49 2cout50 2cout51 2cout52 2cout53 2cout54 2cout55 2cout56 2cout57 2cout58 2cout59 2cout60 2cout61 2cout62 	0     0     0     0     0     0     0     0     0     0     0     0     0     0     0     0     0     0     0     0     0     0     0     0     0     0     0     0     0     0     0     0     0     0     0     0     0     0     0     0     0     0     0     0     0     0     0     0     0     0     0     0     0     0     0     0     0     0     0     0     0     0     0     	1out0 1out1 1out2 1out3 1out4 1out5 1out6 1out7 1out8 1out9 1out10 1out11 1out12 1out13 1out14 1out15 1out16 1out17 1out18 1out19 1out20 1out21 1out22 1out23 1out24 1out25 1out26 1out27 1out28 1out29 1out30 1out31 1out32 1out33 1out34 1out35 1out36 1out37 1out38 1out39 1out40 1out41 1out42 1out43 1out44 1out45 1out46 1out47 1out48 1out49 1out50 1out51 1out52 1out53 1out54 1out55 1out56 1out57 1out58 1out59 1out60 1out61 1out62 	0out1 0out2 0out3 0out4 0out5 0out6 0out7 0out8 0out9 0out10 0out11 0out12 0out13 0out14 0out15 0out16 0out17 0out18 0out19 0out20 0out21 0out22 0out23 0out24 0out25 0out26 0out27 0out28 0out29 0out30 0out31 0out32 0out33 0out34 0out35 0out36 0out37 0out38 0out39 0out40 0out41 0out42 0out43 0out44 0out45 0out46 0out47 0out48 0out49 0out50 0out51 0out52 0out53 0out54 0out55 0out56 0out57 0out58 0out59 0out60 0out61 0out62 0out63 		ADD_ARRAY_SUB XX = XXX
xand_Level3	 0 vdd	3out0 3out1 3out2 3out3 3out4 3out5 3out6 3out7 3out8 3out9 3out10 3out11 3out12 3out13 3out14 3out15 3out16 3out17 3out18 3out19 3out20 3out21 3out22 3out23 3out24 3out25 3out26 3out27 3out28 3out29 3out30 3out31 3out32 3out33 3out34 3out35 3out36 3out37 3out38 3out39 3out40 3out41 3out42 3out43 3out44 3out45 3out46 3out47 3out48 3out49 3out50 3out51 3out52 3out53 3out54 3out55 3out56 3out57 3out58 3out59 3out60 3out61 3out62 3out63 	x0 x1 x2 x3 x4 x5 x6 x7 x8 x9 x10 x11 x12 x13 x14 x15 x16 x17 x18 x19 x20 x21 x22 x23 x24 x25 x26 x27 x28 x29 x30 x31 x32 x33 x34 x35 x36 x37 x38 x39 x40 x41 x42 x43 x44 x45 x46 x47 x48 x49 x50 x51 x52 x53 x54 x55 x56 x57 x58 x59 x60 x61 x62 x63 	y1	AND_ARRAY_SUB XX = XXX
xadd_Level4	 0 vdd	z2 4sum1 4sum2 4sum3 4sum4 4sum5 4sum6 4sum7 4sum8 4sum9 4sum10 4sum11 4sum12 4sum13 4sum14 4sum15 4sum16 4sum17 4sum18 4sum19 4sum20 4sum21 4sum22 4sum23 4sum24 4sum25 4sum26 4sum27 4sum28 4sum29 4sum30 4sum31 4sum32 4sum33 4sum34 4sum35 4sum36 4sum37 4sum38 4sum39 4sum40 4sum41 4sum42 4sum43 4sum44 4sum45 4sum46 4sum47 4sum48 4sum49 4sum50 4sum51 4sum52 4sum53 4sum54 4sum55 4sum56 4sum57 4sum58 4sum59 4sum60 4sum61 4sum62 	4cout0 4cout1 4cout2 4cout3 4cout4 4cout5 4cout6 4cout7 4cout8 4cout9 4cout10 4cout11 4cout12 4cout13 4cout14 4cout15 4cout16 4cout17 4cout18 4cout19 4cout20 4cout21 4cout22 4cout23 4cout24 4cout25 4cout26 4cout27 4cout28 4cout29 4cout30 4cout31 4cout32 4cout33 4cout34 4cout35 4cout36 4cout37 4cout38 4cout39 4cout40 4cout41 4cout42 4cout43 4cout44 4cout45 4cout46 4cout47 4cout48 4cout49 4cout50 4cout51 4cout52 4cout53 4cout54 4cout55 4cout56 4cout57 4cout58 4cout59 4cout60 4cout61 4cout62 	2cout0 2cout1 2cout2 2cout3 2cout4 2cout5 2cout6 2cout7 2cout8 2cout9 2cout10 2cout11 2cout12 2cout13 2cout14 2cout15 2cout16 2cout17 2cout18 2cout19 2cout20 2cout21 2cout22 2cout23 2cout24 2cout25 2cout26 2cout27 2cout28 2cout29 2cout30 2cout31 2cout32 2cout33 2cout34 2cout35 2cout36 2cout37 2cout38 2cout39 2cout40 2cout41 2cout42 2cout43 2cout44 2cout45 2cout46 2cout47 2cout48 2cout49 2cout50 2cout51 2cout52 2cout53 2cout54 2cout55 2cout56 2cout57 2cout58 2cout59 2cout60 2cout61 2cout62 	3out0 3out1 3out2 3out3 3out4 3out5 3out6 3out7 3out8 3out9 3out10 3out11 3out12 3out13 3out14 3out15 3out16 3out17 3out18 3out19 3out20 3out21 3out22 3out23 3out24 3out25 3out26 3out27 3out28 3out29 3out30 3out31 3out32 3out33 3out34 3out35 3out36 3out37 3out38 3out39 3out40 3out41 3out42 3out43 3out44 3out45 3out46 3out47 3out48 3out49 3out50 3out51 3out52 3out53 3out54 3out55 3out56 3out57 3out58 3out59 3out60 3out61 3out62 	2sum1 2sum2 2sum3 2sum4 2sum5 2sum6 2sum7 2sum8 2sum9 2sum10 2sum11 2sum12 2sum13 2sum14 2sum15 2sum16 2sum17 2sum18 2sum19 2sum20 2sum21 2sum22 2sum23 2sum24 2sum25 2sum26 2sum27 2sum28 2sum29 2sum30 2sum31 2sum32 2sum33 2sum34 2sum35 2sum36 2sum37 2sum38 2sum39 2sum40 2sum41 2sum42 2sum43 2sum44 2sum45 2sum46 2sum47 2sum48 2sum49 2sum50 2sum51 2sum52 2sum53 2sum54 2sum55 2sum56 2sum57 2sum58 2sum59 2sum60 2sum61 2sum62 1out63 		ADD_ARRAY_SUB XX = XXX
xand_Level5	 0 vdd	5out0 5out1 5out2 5out3 5out4 5out5 5out6 5out7 5out8 5out9 5out10 5out11 5out12 5out13 5out14 5out15 5out16 5out17 5out18 5out19 5out20 5out21 5out22 5out23 5out24 5out25 5out26 5out27 5out28 5out29 5out30 5out31 5out32 5out33 5out34 5out35 5out36 5out37 5out38 5out39 5out40 5out41 5out42 5out43 5out44 5out45 5out46 5out47 5out48 5out49 5out50 5out51 5out52 5out53 5out54 5out55 5out56 5out57 5out58 5out59 5out60 5out61 5out62 5out63 	x0 x1 x2 x3 x4 x5 x6 x7 x8 x9 x10 x11 x12 x13 x14 x15 x16 x17 x18 x19 x20 x21 x22 x23 x24 x25 x26 x27 x28 x29 x30 x31 x32 x33 x34 x35 x36 x37 x38 x39 x40 x41 x42 x43 x44 x45 x46 x47 x48 x49 x50 x51 x52 x53 x54 x55 x56 x57 x58 x59 x60 x61 x62 x63 	y3	AND_ARRAY_SUB XX = XXX
xadd_Level6	 0 vdd	z3 6sum1 6sum2 6sum3 6sum4 6sum5 6sum6 6sum7 6sum8 6sum9 6sum10 6sum11 6sum12 6sum13 6sum14 6sum15 6sum16 6sum17 6sum18 6sum19 6sum20 6sum21 6sum22 6sum23 6sum24 6sum25 6sum26 6sum27 6sum28 6sum29 6sum30 6sum31 6sum32 6sum33 6sum34 6sum35 6sum36 6sum37 6sum38 6sum39 6sum40 6sum41 6sum42 6sum43 6sum44 6sum45 6sum46 6sum47 6sum48 6sum49 6sum50 6sum51 6sum52 6sum53 6sum54 6sum55 6sum56 6sum57 6sum58 6sum59 6sum60 6sum61 6sum62 	6cout0 6cout1 6cout2 6cout3 6cout4 6cout5 6cout6 6cout7 6cout8 6cout9 6cout10 6cout11 6cout12 6cout13 6cout14 6cout15 6cout16 6cout17 6cout18 6cout19 6cout20 6cout21 6cout22 6cout23 6cout24 6cout25 6cout26 6cout27 6cout28 6cout29 6cout30 6cout31 6cout32 6cout33 6cout34 6cout35 6cout36 6cout37 6cout38 6cout39 6cout40 6cout41 6cout42 6cout43 6cout44 6cout45 6cout46 6cout47 6cout48 6cout49 6cout50 6cout51 6cout52 6cout53 6cout54 6cout55 6cout56 6cout57 6cout58 6cout59 6cout60 6cout61 6cout62 	4cout0 4cout1 4cout2 4cout3 4cout4 4cout5 4cout6 4cout7 4cout8 4cout9 4cout10 4cout11 4cout12 4cout13 4cout14 4cout15 4cout16 4cout17 4cout18 4cout19 4cout20 4cout21 4cout22 4cout23 4cout24 4cout25 4cout26 4cout27 4cout28 4cout29 4cout30 4cout31 4cout32 4cout33 4cout34 4cout35 4cout36 4cout37 4cout38 4cout39 4cout40 4cout41 4cout42 4cout43 4cout44 4cout45 4cout46 4cout47 4cout48 4cout49 4cout50 4cout51 4cout52 4cout53 4cout54 4cout55 4cout56 4cout57 4cout58 4cout59 4cout60 4cout61 4cout62 	5out0 5out1 5out2 5out3 5out4 5out5 5out6 5out7 5out8 5out9 5out10 5out11 5out12 5out13 5out14 5out15 5out16 5out17 5out18 5out19 5out20 5out21 5out22 5out23 5out24 5out25 5out26 5out27 5out28 5out29 5out30 5out31 5out32 5out33 5out34 5out35 5out36 5out37 5out38 5out39 5out40 5out41 5out42 5out43 5out44 5out45 5out46 5out47 5out48 5out49 5out50 5out51 5out52 5out53 5out54 5out55 5out56 5out57 5out58 5out59 5out60 5out61 5out62 	4sum1 4sum2 4sum3 4sum4 4sum5 4sum6 4sum7 4sum8 4sum9 4sum10 4sum11 4sum12 4sum13 4sum14 4sum15 4sum16 4sum17 4sum18 4sum19 4sum20 4sum21 4sum22 4sum23 4sum24 4sum25 4sum26 4sum27 4sum28 4sum29 4sum30 4sum31 4sum32 4sum33 4sum34 4sum35 4sum36 4sum37 4sum38 4sum39 4sum40 4sum41 4sum42 4sum43 4sum44 4sum45 4sum46 4sum47 4sum48 4sum49 4sum50 4sum51 4sum52 4sum53 4sum54 4sum55 4sum56 4sum57 4sum58 4sum59 4sum60 4sum61 4sum62 3out63 		ADD_ARRAY_SUB XX = XXX
xand_Level7	 0 vdd	7out0 7out1 7out2 7out3 7out4 7out5 7out6 7out7 7out8 7out9 7out10 7out11 7out12 7out13 7out14 7out15 7out16 7out17 7out18 7out19 7out20 7out21 7out22 7out23 7out24 7out25 7out26 7out27 7out28 7out29 7out30 7out31 7out32 7out33 7out34 7out35 7out36 7out37 7out38 7out39 7out40 7out41 7out42 7out43 7out44 7out45 7out46 7out47 7out48 7out49 7out50 7out51 7out52 7out53 7out54 7out55 7out56 7out57 7out58 7out59 7out60 7out61 7out62 7out63 	x0 x1 x2 x3 x4 x5 x6 x7 x8 x9 x10 x11 x12 x13 x14 x15 x16 x17 x18 x19 x20 x21 x22 x23 x24 x25 x26 x27 x28 x29 x30 x31 x32 x33 x34 x35 x36 x37 x38 x39 x40 x41 x42 x43 x44 x45 x46 x47 x48 x49 x50 x51 x52 x53 x54 x55 x56 x57 x58 x59 x60 x61 x62 x63 	y5	AND_ARRAY_SUB XX = XXX
xadd_Level8	 0 vdd	z4 8sum1 8sum2 8sum3 8sum4 8sum5 8sum6 8sum7 8sum8 8sum9 8sum10 8sum11 8sum12 8sum13 8sum14 8sum15 8sum16 8sum17 8sum18 8sum19 8sum20 8sum21 8sum22 8sum23 8sum24 8sum25 8sum26 8sum27 8sum28 8sum29 8sum30 8sum31 8sum32 8sum33 8sum34 8sum35 8sum36 8sum37 8sum38 8sum39 8sum40 8sum41 8sum42 8sum43 8sum44 8sum45 8sum46 8sum47 8sum48 8sum49 8sum50 8sum51 8sum52 8sum53 8sum54 8sum55 8sum56 8sum57 8sum58 8sum59 8sum60 8sum61 8sum62 	8cout0 8cout1 8cout2 8cout3 8cout4 8cout5 8cout6 8cout7 8cout8 8cout9 8cout10 8cout11 8cout12 8cout13 8cout14 8cout15 8cout16 8cout17 8cout18 8cout19 8cout20 8cout21 8cout22 8cout23 8cout24 8cout25 8cout26 8cout27 8cout28 8cout29 8cout30 8cout31 8cout32 8cout33 8cout34 8cout35 8cout36 8cout37 8cout38 8cout39 8cout40 8cout41 8cout42 8cout43 8cout44 8cout45 8cout46 8cout47 8cout48 8cout49 8cout50 8cout51 8cout52 8cout53 8cout54 8cout55 8cout56 8cout57 8cout58 8cout59 8cout60 8cout61 8cout62 	6cout0 6cout1 6cout2 6cout3 6cout4 6cout5 6cout6 6cout7 6cout8 6cout9 6cout10 6cout11 6cout12 6cout13 6cout14 6cout15 6cout16 6cout17 6cout18 6cout19 6cout20 6cout21 6cout22 6cout23 6cout24 6cout25 6cout26 6cout27 6cout28 6cout29 6cout30 6cout31 6cout32 6cout33 6cout34 6cout35 6cout36 6cout37 6cout38 6cout39 6cout40 6cout41 6cout42 6cout43 6cout44 6cout45 6cout46 6cout47 6cout48 6cout49 6cout50 6cout51 6cout52 6cout53 6cout54 6cout55 6cout56 6cout57 6cout58 6cout59 6cout60 6cout61 6cout62 	7out0 7out1 7out2 7out3 7out4 7out5 7out6 7out7 7out8 7out9 7out10 7out11 7out12 7out13 7out14 7out15 7out16 7out17 7out18 7out19 7out20 7out21 7out22 7out23 7out24 7out25 7out26 7out27 7out28 7out29 7out30 7out31 7out32 7out33 7out34 7out35 7out36 7out37 7out38 7out39 7out40 7out41 7out42 7out43 7out44 7out45 7out46 7out47 7out48 7out49 7out50 7out51 7out52 7out53 7out54 7out55 7out56 7out57 7out58 7out59 7out60 7out61 7out62 	6sum1 6sum2 6sum3 6sum4 6sum5 6sum6 6sum7 6sum8 6sum9 6sum10 6sum11 6sum12 6sum13 6sum14 6sum15 6sum16 6sum17 6sum18 6sum19 6sum20 6sum21 6sum22 6sum23 6sum24 6sum25 6sum26 6sum27 6sum28 6sum29 6sum30 6sum31 6sum32 6sum33 6sum34 6sum35 6sum36 6sum37 6sum38 6sum39 6sum40 6sum41 6sum42 6sum43 6sum44 6sum45 6sum46 6sum47 6sum48 6sum49 6sum50 6sum51 6sum52 6sum53 6sum54 6sum55 6sum56 6sum57 6sum58 6sum59 6sum60 6sum61 6sum62 5out63 		ADD_ARRAY_SUB XX = XXX
xand_Level9	 0 vdd	9out0 9out1 9out2 9out3 9out4 9out5 9out6 9out7 9out8 9out9 9out10 9out11 9out12 9out13 9out14 9out15 9out16 9out17 9out18 9out19 9out20 9out21 9out22 9out23 9out24 9out25 9out26 9out27 9out28 9out29 9out30 9out31 9out32 9out33 9out34 9out35 9out36 9out37 9out38 9out39 9out40 9out41 9out42 9out43 9out44 9out45 9out46 9out47 9out48 9out49 9out50 9out51 9out52 9out53 9out54 9out55 9out56 9out57 9out58 9out59 9out60 9out61 9out62 9out63 	x0 x1 x2 x3 x4 x5 x6 x7 x8 x9 x10 x11 x12 x13 x14 x15 x16 x17 x18 x19 x20 x21 x22 x23 x24 x25 x26 x27 x28 x29 x30 x31 x32 x33 x34 x35 x36 x37 x38 x39 x40 x41 x42 x43 x44 x45 x46 x47 x48 x49 x50 x51 x52 x53 x54 x55 x56 x57 x58 x59 x60 x61 x62 x63 	y7	AND_ARRAY_SUB XX = XXX
xadd_Level10	 0 vdd	z5 10sum1 10sum2 10sum3 10sum4 10sum5 10sum6 10sum7 10sum8 10sum9 10sum10 10sum11 10sum12 10sum13 10sum14 10sum15 10sum16 10sum17 10sum18 10sum19 10sum20 10sum21 10sum22 10sum23 10sum24 10sum25 10sum26 10sum27 10sum28 10sum29 10sum30 10sum31 10sum32 10sum33 10sum34 10sum35 10sum36 10sum37 10sum38 10sum39 10sum40 10sum41 10sum42 10sum43 10sum44 10sum45 10sum46 10sum47 10sum48 10sum49 10sum50 10sum51 10sum52 10sum53 10sum54 10sum55 10sum56 10sum57 10sum58 10sum59 10sum60 10sum61 10sum62 	10cout0 10cout1 10cout2 10cout3 10cout4 10cout5 10cout6 10cout7 10cout8 10cout9 10cout10 10cout11 10cout12 10cout13 10cout14 10cout15 10cout16 10cout17 10cout18 10cout19 10cout20 10cout21 10cout22 10cout23 10cout24 10cout25 10cout26 10cout27 10cout28 10cout29 10cout30 10cout31 10cout32 10cout33 10cout34 10cout35 10cout36 10cout37 10cout38 10cout39 10cout40 10cout41 10cout42 10cout43 10cout44 10cout45 10cout46 10cout47 10cout48 10cout49 10cout50 10cout51 10cout52 10cout53 10cout54 10cout55 10cout56 10cout57 10cout58 10cout59 10cout60 10cout61 10cout62 	8cout0 8cout1 8cout2 8cout3 8cout4 8cout5 8cout6 8cout7 8cout8 8cout9 8cout10 8cout11 8cout12 8cout13 8cout14 8cout15 8cout16 8cout17 8cout18 8cout19 8cout20 8cout21 8cout22 8cout23 8cout24 8cout25 8cout26 8cout27 8cout28 8cout29 8cout30 8cout31 8cout32 8cout33 8cout34 8cout35 8cout36 8cout37 8cout38 8cout39 8cout40 8cout41 8cout42 8cout43 8cout44 8cout45 8cout46 8cout47 8cout48 8cout49 8cout50 8cout51 8cout52 8cout53 8cout54 8cout55 8cout56 8cout57 8cout58 8cout59 8cout60 8cout61 8cout62 	9out0 9out1 9out2 9out3 9out4 9out5 9out6 9out7 9out8 9out9 9out10 9out11 9out12 9out13 9out14 9out15 9out16 9out17 9out18 9out19 9out20 9out21 9out22 9out23 9out24 9out25 9out26 9out27 9out28 9out29 9out30 9out31 9out32 9out33 9out34 9out35 9out36 9out37 9out38 9out39 9out40 9out41 9out42 9out43 9out44 9out45 9out46 9out47 9out48 9out49 9out50 9out51 9out52 9out53 9out54 9out55 9out56 9out57 9out58 9out59 9out60 9out61 9out62 	8sum1 8sum2 8sum3 8sum4 8sum5 8sum6 8sum7 8sum8 8sum9 8sum10 8sum11 8sum12 8sum13 8sum14 8sum15 8sum16 8sum17 8sum18 8sum19 8sum20 8sum21 8sum22 8sum23 8sum24 8sum25 8sum26 8sum27 8sum28 8sum29 8sum30 8sum31 8sum32 8sum33 8sum34 8sum35 8sum36 8sum37 8sum38 8sum39 8sum40 8sum41 8sum42 8sum43 8sum44 8sum45 8sum46 8sum47 8sum48 8sum49 8sum50 8sum51 8sum52 8sum53 8sum54 8sum55 8sum56 8sum57 8sum58 8sum59 8sum60 8sum61 8sum62 7out63 		ADD_ARRAY_SUB XX = XXX
xand_Level11	 0 vdd	11out0 11out1 11out2 11out3 11out4 11out5 11out6 11out7 11out8 11out9 11out10 11out11 11out12 11out13 11out14 11out15 11out16 11out17 11out18 11out19 11out20 11out21 11out22 11out23 11out24 11out25 11out26 11out27 11out28 11out29 11out30 11out31 11out32 11out33 11out34 11out35 11out36 11out37 11out38 11out39 11out40 11out41 11out42 11out43 11out44 11out45 11out46 11out47 11out48 11out49 11out50 11out51 11out52 11out53 11out54 11out55 11out56 11out57 11out58 11out59 11out60 11out61 11out62 11out63 	x0 x1 x2 x3 x4 x5 x6 x7 x8 x9 x10 x11 x12 x13 x14 x15 x16 x17 x18 x19 x20 x21 x22 x23 x24 x25 x26 x27 x28 x29 x30 x31 x32 x33 x34 x35 x36 x37 x38 x39 x40 x41 x42 x43 x44 x45 x46 x47 x48 x49 x50 x51 x52 x53 x54 x55 x56 x57 x58 x59 x60 x61 x62 x63 	y9	AND_ARRAY_SUB XX = XXX
xadd_Level12	 0 vdd	z6 12sum1 12sum2 12sum3 12sum4 12sum5 12sum6 12sum7 12sum8 12sum9 12sum10 12sum11 12sum12 12sum13 12sum14 12sum15 12sum16 12sum17 12sum18 12sum19 12sum20 12sum21 12sum22 12sum23 12sum24 12sum25 12sum26 12sum27 12sum28 12sum29 12sum30 12sum31 12sum32 12sum33 12sum34 12sum35 12sum36 12sum37 12sum38 12sum39 12sum40 12sum41 12sum42 12sum43 12sum44 12sum45 12sum46 12sum47 12sum48 12sum49 12sum50 12sum51 12sum52 12sum53 12sum54 12sum55 12sum56 12sum57 12sum58 12sum59 12sum60 12sum61 12sum62 	12cout0 12cout1 12cout2 12cout3 12cout4 12cout5 12cout6 12cout7 12cout8 12cout9 12cout10 12cout11 12cout12 12cout13 12cout14 12cout15 12cout16 12cout17 12cout18 12cout19 12cout20 12cout21 12cout22 12cout23 12cout24 12cout25 12cout26 12cout27 12cout28 12cout29 12cout30 12cout31 12cout32 12cout33 12cout34 12cout35 12cout36 12cout37 12cout38 12cout39 12cout40 12cout41 12cout42 12cout43 12cout44 12cout45 12cout46 12cout47 12cout48 12cout49 12cout50 12cout51 12cout52 12cout53 12cout54 12cout55 12cout56 12cout57 12cout58 12cout59 12cout60 12cout61 12cout62 	10cout0 10cout1 10cout2 10cout3 10cout4 10cout5 10cout6 10cout7 10cout8 10cout9 10cout10 10cout11 10cout12 10cout13 10cout14 10cout15 10cout16 10cout17 10cout18 10cout19 10cout20 10cout21 10cout22 10cout23 10cout24 10cout25 10cout26 10cout27 10cout28 10cout29 10cout30 10cout31 10cout32 10cout33 10cout34 10cout35 10cout36 10cout37 10cout38 10cout39 10cout40 10cout41 10cout42 10cout43 10cout44 10cout45 10cout46 10cout47 10cout48 10cout49 10cout50 10cout51 10cout52 10cout53 10cout54 10cout55 10cout56 10cout57 10cout58 10cout59 10cout60 10cout61 10cout62 	11out0 11out1 11out2 11out3 11out4 11out5 11out6 11out7 11out8 11out9 11out10 11out11 11out12 11out13 11out14 11out15 11out16 11out17 11out18 11out19 11out20 11out21 11out22 11out23 11out24 11out25 11out26 11out27 11out28 11out29 11out30 11out31 11out32 11out33 11out34 11out35 11out36 11out37 11out38 11out39 11out40 11out41 11out42 11out43 11out44 11out45 11out46 11out47 11out48 11out49 11out50 11out51 11out52 11out53 11out54 11out55 11out56 11out57 11out58 11out59 11out60 11out61 11out62 	10sum1 10sum2 10sum3 10sum4 10sum5 10sum6 10sum7 10sum8 10sum9 10sum10 10sum11 10sum12 10sum13 10sum14 10sum15 10sum16 10sum17 10sum18 10sum19 10sum20 10sum21 10sum22 10sum23 10sum24 10sum25 10sum26 10sum27 10sum28 10sum29 10sum30 10sum31 10sum32 10sum33 10sum34 10sum35 10sum36 10sum37 10sum38 10sum39 10sum40 10sum41 10sum42 10sum43 10sum44 10sum45 10sum46 10sum47 10sum48 10sum49 10sum50 10sum51 10sum52 10sum53 10sum54 10sum55 10sum56 10sum57 10sum58 10sum59 10sum60 10sum61 10sum62 9out63 		ADD_ARRAY_SUB XX = XXX
xand_Level13	 0 vdd	13out0 13out1 13out2 13out3 13out4 13out5 13out6 13out7 13out8 13out9 13out10 13out11 13out12 13out13 13out14 13out15 13out16 13out17 13out18 13out19 13out20 13out21 13out22 13out23 13out24 13out25 13out26 13out27 13out28 13out29 13out30 13out31 13out32 13out33 13out34 13out35 13out36 13out37 13out38 13out39 13out40 13out41 13out42 13out43 13out44 13out45 13out46 13out47 13out48 13out49 13out50 13out51 13out52 13out53 13out54 13out55 13out56 13out57 13out58 13out59 13out60 13out61 13out62 13out63 	x0 x1 x2 x3 x4 x5 x6 x7 x8 x9 x10 x11 x12 x13 x14 x15 x16 x17 x18 x19 x20 x21 x22 x23 x24 x25 x26 x27 x28 x29 x30 x31 x32 x33 x34 x35 x36 x37 x38 x39 x40 x41 x42 x43 x44 x45 x46 x47 x48 x49 x50 x51 x52 x53 x54 x55 x56 x57 x58 x59 x60 x61 x62 x63 	y11	AND_ARRAY_SUB XX = XXX