*MOLTIPLICATORE CARRY SAVE
.option filetype=ascii
.INCLUDE ../lib/ST65LIKE_cell_library_v2020_1.net 
.INCLUDE ../lib/16nm_HP.pm
.PARAM Lmin=16n
.PARAM Wmin=16n
.PARAM XXX=1
.TRAN 0.1p 820p
.subckt AND_ARRAY_SUB	0 Vdd out0 out1 out2 out3 out4 out5 out6 out7 out8 out9 out10 out11 out12 out13 out14 out15 out16 out17 out18 out19 out20 out21 out22 out23 out24 out25 out26 out27 out28 out29 out30 out31 x0 x1 x2 x3 x4 x5 x6 x7 x8 x9 x10 x11 x12 x13 x14 x15 x16 x17 x18 x19 x20 x21 x22 x23 x24 x25 x26 x27 x28 x29 x30 x31 y	XX=1
xand0	0 Vdd out0 x0 y	AND2_SUB XX=XXX
xand1	0 Vdd out1 x1 y	AND2_SUB XX=XXX
xand2	0 Vdd out2 x2 y	AND2_SUB XX=XXX
xand3	0 Vdd out3 x3 y	AND2_SUB XX=XXX
xand4	0 Vdd out4 x4 y	AND2_SUB XX=XXX
xand5	0 Vdd out5 x5 y	AND2_SUB XX=XXX
xand6	0 Vdd out6 x6 y	AND2_SUB XX=XXX
xand7	0 Vdd out7 x7 y	AND2_SUB XX=XXX
xand8	0 Vdd out8 x8 y	AND2_SUB XX=XXX
xand9	0 Vdd out9 x9 y	AND2_SUB XX=XXX
xand10	0 Vdd out10 x10 y	AND2_SUB XX=XXX
xand11	0 Vdd out11 x11 y	AND2_SUB XX=XXX
xand12	0 Vdd out12 x12 y	AND2_SUB XX=XXX
xand13	0 Vdd out13 x13 y	AND2_SUB XX=XXX
xand14	0 Vdd out14 x14 y	AND2_SUB XX=XXX
xand15	0 Vdd out15 x15 y	AND2_SUB XX=XXX
xand16	0 Vdd out16 x16 y	AND2_SUB XX=XXX
xand17	0 Vdd out17 x17 y	AND2_SUB XX=XXX
xand18	0 Vdd out18 x18 y	AND2_SUB XX=XXX
xand19	0 Vdd out19 x19 y	AND2_SUB XX=XXX
xand20	0 Vdd out20 x20 y	AND2_SUB XX=XXX
xand21	0 Vdd out21 x21 y	AND2_SUB XX=XXX
xand22	0 Vdd out22 x22 y	AND2_SUB XX=XXX
xand23	0 Vdd out23 x23 y	AND2_SUB XX=XXX
xand24	0 Vdd out24 x24 y	AND2_SUB XX=XXX
xand25	0 Vdd out25 x25 y	AND2_SUB XX=XXX
xand26	0 Vdd out26 x26 y	AND2_SUB XX=XXX
xand27	0 Vdd out27 x27 y	AND2_SUB XX=XXX
xand28	0 Vdd out28 x28 y	AND2_SUB XX=XXX
xand29	0 Vdd out29 x29 y	AND2_SUB XX=XXX
xand30	0 Vdd out30 x30 y	AND2_SUB XX=XXX
xand31	0 Vdd out31 x31 y	AND2_SUB XX=XXX
.ends 

.subckt ADD_ARRAY_SUB	0 Vdd sum0 sum1 sum2 sum3 sum4 sum5 sum6 sum7 sum8 sum9 sum10 sum11 sum12 sum13 sum14 sum15 sum16 sum17 sum18 sum19 sum20 sum21 sum22 sum23 sum24 sum25 sum26 sum27 sum28 sum29 sum30 Cout0 Cout1 Cout2 Cout3 Cout4 Cout5 Cout6 Cout7 Cout8 Cout9 Cout10 Cout11 Cout12 Cout13 Cout14 Cout15 Cout16 Cout17 Cout18 Cout19 Cout20 Cout21 Cout22 Cout23 Cout24 Cout25 Cout26 Cout27 Cout28 Cout29 Cout30 Cin0 Cin1 Cin2 Cin3 Cin4 Cin5 Cin6 Cin7 Cin8 Cin9 Cin10 Cin11 Cin12 Cin13 Cin14 Cin15 Cin16 Cin17 Cin18 Cin19 Cin20 Cin21 Cin22 Cin23 Cin24 Cin25 Cin26 Cin27 Cin28 Cin29 Cin30 a0 a1 a2 a3 a4 a5 a6 a7 a8 a9 a10 a11 a12 a13 a14 a15 a16 a17 a18 a19 a20 a21 a22 a23 a24 a25 a26 a27 a28 a29 a30 b0 b1 b2 b3 b4 b5 b6 b7 b8 b9 b10 b11 b12 b13 b14 b15 b16 b17 b18 b19 b20 b21 b22 b23 b24 b25 b26 b27 b28 b29 b30 	XX=1
	xadd0 0 Vdd sum0 cout0 cin0 a0 b0  FA_SUB XX = XXX
	xadd1 0 Vdd sum1 cout1 cin1 a1 b1  FA_SUB XX = XXX
	xadd2 0 Vdd sum2 cout2 cin2 a2 b2  FA_SUB XX = XXX
	xadd3 0 Vdd sum3 cout3 cin3 a3 b3  FA_SUB XX = XXX
	xadd4 0 Vdd sum4 cout4 cin4 a4 b4  FA_SUB XX = XXX
	xadd5 0 Vdd sum5 cout5 cin5 a5 b5  FA_SUB XX = XXX
	xadd6 0 Vdd sum6 cout6 cin6 a6 b6  FA_SUB XX = XXX
	xadd7 0 Vdd sum7 cout7 cin7 a7 b7  FA_SUB XX = XXX
	xadd8 0 Vdd sum8 cout8 cin8 a8 b8  FA_SUB XX = XXX
	xadd9 0 Vdd sum9 cout9 cin9 a9 b9  FA_SUB XX = XXX
	xadd10 0 Vdd sum10 cout10 cin10 a10 b10  FA_SUB XX = XXX
	xadd11 0 Vdd sum11 cout11 cin11 a11 b11  FA_SUB XX = XXX
	xadd12 0 Vdd sum12 cout12 cin12 a12 b12  FA_SUB XX = XXX
	xadd13 0 Vdd sum13 cout13 cin13 a13 b13  FA_SUB XX = XXX
	xadd14 0 Vdd sum14 cout14 cin14 a14 b14  FA_SUB XX = XXX
	xadd15 0 Vdd sum15 cout15 cin15 a15 b15  FA_SUB XX = XXX
	xadd16 0 Vdd sum16 cout16 cin16 a16 b16  FA_SUB XX = XXX
	xadd17 0 Vdd sum17 cout17 cin17 a17 b17  FA_SUB XX = XXX
	xadd18 0 Vdd sum18 cout18 cin18 a18 b18  FA_SUB XX = XXX
	xadd19 0 Vdd sum19 cout19 cin19 a19 b19  FA_SUB XX = XXX
	xadd20 0 Vdd sum20 cout20 cin20 a20 b20  FA_SUB XX = XXX
	xadd21 0 Vdd sum21 cout21 cin21 a21 b21  FA_SUB XX = XXX
	xadd22 0 Vdd sum22 cout22 cin22 a22 b22  FA_SUB XX = XXX
	xadd23 0 Vdd sum23 cout23 cin23 a23 b23  FA_SUB XX = XXX
	xadd24 0 Vdd sum24 cout24 cin24 a24 b24  FA_SUB XX = XXX
	xadd25 0 Vdd sum25 cout25 cin25 a25 b25  FA_SUB XX = XXX
	xadd26 0 Vdd sum26 cout26 cin26 a26 b26  FA_SUB XX = XXX
	xadd27 0 Vdd sum27 cout27 cin27 a27 b27  FA_SUB XX = XXX
	xadd28 0 Vdd sum28 cout28 cin28 a28 b28  FA_SUB XX = XXX
	xadd29 0 Vdd sum29 cout29 cin29 a29 b29  FA_SUB XX = XXX
	xadd30 0 Vdd sum30 cout30 cin30 a30 b30  FA_SUB XX = XXX
.ends 

.subckt MCS_SUB	0 Vdd	z0 z1 z2 z3 z4 z5 z6 z7 z8 z9 z10 z11 z12 z13 z14 z15 z16 z17 z18 z19 z20 z21 z22 z23 z24 z25 z26 z27 z28 z29 z30 z31 z32 z33 z34 z35 z36 z37 z38 z39 z40 z41 z42 z43 z44 z45 z46 z47 z48 z49 z50 z51 z52 z53 z54 z55 z56 z57 z58 z59 z60 z61 z62 z63 	x0 x1 x2 x3 x4 x5 x6 x7 x8 x9 x10 x11 x12 x13 x14 x15 x16 x17 x18 x19 x20 x21 x22 x23 x24 x25 x26 x27 x28 x29 x30 x31 	y0 y1 y2 y3 y4 y5 y6 y7 y8 y9 y10 y11 y12 y13 y14 y15 y16 y17 y18 y19 y20 y21 y22 y23 y24 y25 y26 y27 y28 y29 y30 y31 		XX=1
xand_Level0	 0 vdd	z0    0out1 0out2 0out3 0out4 0out5 0out6 0out7 0out8 0out9 0out10 0out11 0out12 0out13 0out14 0out15 0out16 0out17 0out18 0out19 0out20 0out21 0out22 0out23 0out24 0out25 0out26 0out27 0out28 0out29 0out30 0out31 	x0 x1 x2 x3 x4 x5 x6 x7 x8 x9 x10 x11 x12 x13 x14 x15 x16 x17 x18 x19 x20 x21 x22 x23 x24 x25 x26 x27 x28 x29 x30 x31 	y0	AND_ARRAY_SUB XX = XXX
xand_Level1	 0 vdd	1out0 1out1 1out2 1out3 1out4 1out5 1out6 1out7 1out8 1out9 1out10 1out11 1out12 1out13 1out14 1out15 1out16 1out17 1out18 1out19 1out20 1out21 1out22 1out23 1out24 1out25 1out26 1out27 1out28 1out29 1out30 1out31 	x0 x1 x2 x3 x4 x5 x6 x7 x8 x9 x10 x11 x12 x13 x14 x15 x16 x17 x18 x19 x20 x21 x22 x23 x24 x25 x26 x27 x28 x29 x30 x31 	y1	AND_ARRAY_SUB XX = XXX
xadd_Level2	 0 vdd	z1 2sum1 2sum2 2sum3 2sum4 2sum5 2sum6 2sum7 2sum8 2sum9 2sum10 2sum11 2sum12 2sum13 2sum14 2sum15 2sum16 2sum17 2sum18 2sum19 2sum20 2sum21 2sum22 2sum23 2sum24 2sum25 2sum26 2sum27 2sum28 2sum29 2sum30 	2cout0 2cout1 2cout2 2cout3 2cout4 2cout5 2cout6 2cout7 2cout8 2cout9 2cout10 2cout11 2cout12 2cout13 2cout14 2cout15 2cout16 2cout17 2cout18 2cout19 2cout20 2cout21 2cout22 2cout23 2cout24 2cout25 2cout26 2cout27 2cout28 2cout29 2cout30 	0     0     0     0     0     0     0     0     0     0     0     0     0     0     0     0     0     0     0     0     0     0     0     0     0     0     0     0     0     0     0     	1out0 1out1 1out2 1out3 1out4 1out5 1out6 1out7 1out8 1out9 1out10 1out11 1out12 1out13 1out14 1out15 1out16 1out17 1out18 1out19 1out20 1out21 1out22 1out23 1out24 1out25 1out26 1out27 1out28 1out29 1out30 	0out1 0out2 0out3 0out4 0out5 0out6 0out7 0out8 0out9 0out10 0out11 0out12 0out13 0out14 0out15 0out16 0out17 0out18 0out19 0out20 0out21 0out22 0out23 0out24 0out25 0out26 0out27 0out28 0out29 0out30 0out31 		ADD_ARRAY_SUB XX = XXX
xand_Level3	 0 vdd	3out0 3out1 3out2 3out3 3out4 3out5 3out6 3out7 3out8 3out9 3out10 3out11 3out12 3out13 3out14 3out15 3out16 3out17 3out18 3out19 3out20 3out21 3out22 3out23 3out24 3out25 3out26 3out27 3out28 3out29 3out30 3out31 	x0 x1 x2 x3 x4 x5 x6 x7 x8 x9 x10 x11 x12 x13 x14 x15 x16 x17 x18 x19 x20 x21 x22 x23 x24 x25 x26 x27 x28 x29 x30 x31 	y2	AND_ARRAY_SUB XX = XXX
xadd_Level4	 0 vdd	z2 4sum1 4sum2 4sum3 4sum4 4sum5 4sum6 4sum7 4sum8 4sum9 4sum10 4sum11 4sum12 4sum13 4sum14 4sum15 4sum16 4sum17 4sum18 4sum19 4sum20 4sum21 4sum22 4sum23 4sum24 4sum25 4sum26 4sum27 4sum28 4sum29 4sum30 	4cout0 4cout1 4cout2 4cout3 4cout4 4cout5 4cout6 4cout7 4cout8 4cout9 4cout10 4cout11 4cout12 4cout13 4cout14 4cout15 4cout16 4cout17 4cout18 4cout19 4cout20 4cout21 4cout22 4cout23 4cout24 4cout25 4cout26 4cout27 4cout28 4cout29 4cout30 	2cout0 2cout1 2cout2 2cout3 2cout4 2cout5 2cout6 2cout7 2cout8 2cout9 2cout10 2cout11 2cout12 2cout13 2cout14 2cout15 2cout16 2cout17 2cout18 2cout19 2cout20 2cout21 2cout22 2cout23 2cout24 2cout25 2cout26 2cout27 2cout28 2cout29 2cout30 	3out0 3out1 3out2 3out3 3out4 3out5 3out6 3out7 3out8 3out9 3out10 3out11 3out12 3out13 3out14 3out15 3out16 3out17 3out18 3out19 3out20 3out21 3out22 3out23 3out24 3out25 3out26 3out27 3out28 3out29 3out30 	2sum1 2sum2 2sum3 2sum4 2sum5 2sum6 2sum7 2sum8 2sum9 2sum10 2sum11 2sum12 2sum13 2sum14 2sum15 2sum16 2sum17 2sum18 2sum19 2sum20 2sum21 2sum22 2sum23 2sum24 2sum25 2sum26 2sum27 2sum28 2sum29 2sum30 1out31 		ADD_ARRAY_SUB XX = XXX
xand_Level5	 0 vdd	5out0 5out1 5out2 5out3 5out4 5out5 5out6 5out7 5out8 5out9 5out10 5out11 5out12 5out13 5out14 5out15 5out16 5out17 5out18 5out19 5out20 5out21 5out22 5out23 5out24 5out25 5out26 5out27 5out28 5out29 5out30 5out31 	x0 x1 x2 x3 x4 x5 x6 x7 x8 x9 x10 x11 x12 x13 x14 x15 x16 x17 x18 x19 x20 x21 x22 x23 x24 x25 x26 x27 x28 x29 x30 x31 	y3	AND_ARRAY_SUB XX = XXX
xadd_Level6	 0 vdd	z3 6sum1 6sum2 6sum3 6sum4 6sum5 6sum6 6sum7 6sum8 6sum9 6sum10 6sum11 6sum12 6sum13 6sum14 6sum15 6sum16 6sum17 6sum18 6sum19 6sum20 6sum21 6sum22 6sum23 6sum24 6sum25 6sum26 6sum27 6sum28 6sum29 6sum30 	6cout0 6cout1 6cout2 6cout3 6cout4 6cout5 6cout6 6cout7 6cout8 6cout9 6cout10 6cout11 6cout12 6cout13 6cout14 6cout15 6cout16 6cout17 6cout18 6cout19 6cout20 6cout21 6cout22 6cout23 6cout24 6cout25 6cout26 6cout27 6cout28 6cout29 6cout30 	4cout0 4cout1 4cout2 4cout3 4cout4 4cout5 4cout6 4cout7 4cout8 4cout9 4cout10 4cout11 4cout12 4cout13 4cout14 4cout15 4cout16 4cout17 4cout18 4cout19 4cout20 4cout21 4cout22 4cout23 4cout24 4cout25 4cout26 4cout27 4cout28 4cout29 4cout30 	5out0 5out1 5out2 5out3 5out4 5out5 5out6 5out7 5out8 5out9 5out10 5out11 5out12 5out13 5out14 5out15 5out16 5out17 5out18 5out19 5out20 5out21 5out22 5out23 5out24 5out25 5out26 5out27 5out28 5out29 5out30 	4sum1 4sum2 4sum3 4sum4 4sum5 4sum6 4sum7 4sum8 4sum9 4sum10 4sum11 4sum12 4sum13 4sum14 4sum15 4sum16 4sum17 4sum18 4sum19 4sum20 4sum21 4sum22 4sum23 4sum24 4sum25 4sum26 4sum27 4sum28 4sum29 4sum30 3out31 		ADD_ARRAY_SUB XX = XXX
xand_Level7	 0 vdd	7out0 7out1 7out2 7out3 7out4 7out5 7out6 7out7 7out8 7out9 7out10 7out11 7out12 7out13 7out14 7out15 7out16 7out17 7out18 7out19 7out20 7out21 7out22 7out23 7out24 7out25 7out26 7out27 7out28 7out29 7out30 7out31 	x0 x1 x2 x3 x4 x5 x6 x7 x8 x9 x10 x11 x12 x13 x14 x15 x16 x17 x18 x19 x20 x21 x22 x23 x24 x25 x26 x27 x28 x29 x30 x31 	y4	AND_ARRAY_SUB XX = XXX
xadd_Level8	 0 vdd	z4 8sum1 8sum2 8sum3 8sum4 8sum5 8sum6 8sum7 8sum8 8sum9 8sum10 8sum11 8sum12 8sum13 8sum14 8sum15 8sum16 8sum17 8sum18 8sum19 8sum20 8sum21 8sum22 8sum23 8sum24 8sum25 8sum26 8sum27 8sum28 8sum29 8sum30 	8cout0 8cout1 8cout2 8cout3 8cout4 8cout5 8cout6 8cout7 8cout8 8cout9 8cout10 8cout11 8cout12 8cout13 8cout14 8cout15 8cout16 8cout17 8cout18 8cout19 8cout20 8cout21 8cout22 8cout23 8cout24 8cout25 8cout26 8cout27 8cout28 8cout29 8cout30 	6cout0 6cout1 6cout2 6cout3 6cout4 6cout5 6cout6 6cout7 6cout8 6cout9 6cout10 6cout11 6cout12 6cout13 6cout14 6cout15 6cout16 6cout17 6cout18 6cout19 6cout20 6cout21 6cout22 6cout23 6cout24 6cout25 6cout26 6cout27 6cout28 6cout29 6cout30 	7out0 7out1 7out2 7out3 7out4 7out5 7out6 7out7 7out8 7out9 7out10 7out11 7out12 7out13 7out14 7out15 7out16 7out17 7out18 7out19 7out20 7out21 7out22 7out23 7out24 7out25 7out26 7out27 7out28 7out29 7out30 	6sum1 6sum2 6sum3 6sum4 6sum5 6sum6 6sum7 6sum8 6sum9 6sum10 6sum11 6sum12 6sum13 6sum14 6sum15 6sum16 6sum17 6sum18 6sum19 6sum20 6sum21 6sum22 6sum23 6sum24 6sum25 6sum26 6sum27 6sum28 6sum29 6sum30 5out31 		ADD_ARRAY_SUB XX = XXX
xand_Level9	 0 vdd	9out0 9out1 9out2 9out3 9out4 9out5 9out6 9out7 9out8 9out9 9out10 9out11 9out12 9out13 9out14 9out15 9out16 9out17 9out18 9out19 9out20 9out21 9out22 9out23 9out24 9out25 9out26 9out27 9out28 9out29 9out30 9out31 	x0 x1 x2 x3 x4 x5 x6 x7 x8 x9 x10 x11 x12 x13 x14 x15 x16 x17 x18 x19 x20 x21 x22 x23 x24 x25 x26 x27 x28 x29 x30 x31 	y5	AND_ARRAY_SUB XX = XXX
xadd_Level10	 0 vdd	z5 10sum1 10sum2 10sum3 10sum4 10sum5 10sum6 10sum7 10sum8 10sum9 10sum10 10sum11 10sum12 10sum13 10sum14 10sum15 10sum16 10sum17 10sum18 10sum19 10sum20 10sum21 10sum22 10sum23 10sum24 10sum25 10sum26 10sum27 10sum28 10sum29 10sum30 	10cout0 10cout1 10cout2 10cout3 10cout4 10cout5 10cout6 10cout7 10cout8 10cout9 10cout10 10cout11 10cout12 10cout13 10cout14 10cout15 10cout16 10cout17 10cout18 10cout19 10cout20 10cout21 10cout22 10cout23 10cout24 10cout25 10cout26 10cout27 10cout28 10cout29 10cout30 	8cout0 8cout1 8cout2 8cout3 8cout4 8cout5 8cout6 8cout7 8cout8 8cout9 8cout10 8cout11 8cout12 8cout13 8cout14 8cout15 8cout16 8cout17 8cout18 8cout19 8cout20 8cout21 8cout22 8cout23 8cout24 8cout25 8cout26 8cout27 8cout28 8cout29 8cout30 	9out0 9out1 9out2 9out3 9out4 9out5 9out6 9out7 9out8 9out9 9out10 9out11 9out12 9out13 9out14 9out15 9out16 9out17 9out18 9out19 9out20 9out21 9out22 9out23 9out24 9out25 9out26 9out27 9out28 9out29 9out30 	8sum1 8sum2 8sum3 8sum4 8sum5 8sum6 8sum7 8sum8 8sum9 8sum10 8sum11 8sum12 8sum13 8sum14 8sum15 8sum16 8sum17 8sum18 8sum19 8sum20 8sum21 8sum22 8sum23 8sum24 8sum25 8sum26 8sum27 8sum28 8sum29 8sum30 7out31 		ADD_ARRAY_SUB XX = XXX
xand_Level11	 0 vdd	11out0 11out1 11out2 11out3 11out4 11out5 11out6 11out7 11out8 11out9 11out10 11out11 11out12 11out13 11out14 11out15 11out16 11out17 11out18 11out19 11out20 11out21 11out22 11out23 11out24 11out25 11out26 11out27 11out28 11out29 11out30 11out31 	x0 x1 x2 x3 x4 x5 x6 x7 x8 x9 x10 x11 x12 x13 x14 x15 x16 x17 x18 x19 x20 x21 x22 x23 x24 x25 x26 x27 x28 x29 x30 x31 	y6	AND_ARRAY_SUB XX = XXX
xadd_Level12	 0 vdd	z6 12sum1 12sum2 12sum3 12sum4 12sum5 12sum6 12sum7 12sum8 12sum9 12sum10 12sum11 12sum12 12sum13 12sum14 12sum15 12sum16 12sum17 12sum18 12sum19 12sum20 12sum21 12sum22 12sum23 12sum24 12sum25 12sum26 12sum27 12sum28 12sum29 12sum30 	12cout0 12cout1 12cout2 12cout3 12cout4 12cout5 12cout6 12cout7 12cout8 12cout9 12cout10 12cout11 12cout12 12cout13 12cout14 12cout15 12cout16 12cout17 12cout18 12cout19 12cout20 12cout21 12cout22 12cout23 12cout24 12cout25 12cout26 12cout27 12cout28 12cout29 12cout30 	10cout0 10cout1 10cout2 10cout3 10cout4 10cout5 10cout6 10cout7 10cout8 10cout9 10cout10 10cout11 10cout12 10cout13 10cout14 10cout15 10cout16 10cout17 10cout18 10cout19 10cout20 10cout21 10cout22 10cout23 10cout24 10cout25 10cout26 10cout27 10cout28 10cout29 10cout30 	11out0 11out1 11out2 11out3 11out4 11out5 11out6 11out7 11out8 11out9 11out10 11out11 11out12 11out13 11out14 11out15 11out16 11out17 11out18 11out19 11out20 11out21 11out22 11out23 11out24 11out25 11out26 11out27 11out28 11out29 11out30 	10sum1 10sum2 10sum3 10sum4 10sum5 10sum6 10sum7 10sum8 10sum9 10sum10 10sum11 10sum12 10sum13 10sum14 10sum15 10sum16 10sum17 10sum18 10sum19 10sum20 10sum21 10sum22 10sum23 10sum24 10sum25 10sum26 10sum27 10sum28 10sum29 10sum30 9out31 		ADD_ARRAY_SUB XX = XXX
xand_Level13	 0 vdd	13out0 13out1 13out2 13out3 13out4 13out5 13out6 13out7 13out8 13out9 13out10 13out11 13out12 13out13 13out14 13out15 13out16 13out17 13out18 13out19 13out20 13out21 13out22 13out23 13out24 13out25 13out26 13out27 13out28 13out29 13out30 13out31 	x0 x1 x2 x3 x4 x5 x6 x7 x8 x9 x10 x11 x12 x13 x14 x15 x16 x17 x18 x19 x20 x21 x22 x23 x24 x25 x26 x27 x28 x29 x30 x31 	y7	AND_ARRAY_SUB XX = XXX
xadd_Level14	 0 vdd	z7 14sum1 14sum2 14sum3 14sum4 14sum5 14sum6 14sum7 14sum8 14sum9 14sum10 14sum11 14sum12 14sum13 14sum14 14sum15 14sum16 14sum17 14sum18 14sum19 14sum20 14sum21 14sum22 14sum23 14sum24 14sum25 14sum26 14sum27 14sum28 14sum29 14sum30 	14cout0 14cout1 14cout2 14cout3 14cout4 14cout5 14cout6 14cout7 14cout8 14cout9 14cout10 14cout11 14cout12 14cout13 14cout14 14cout15 14cout16 14cout17 14cout18 14cout19 14cout20 14cout21 14cout22 14cout23 14cout24 14cout25 14cout26 14cout27 14cout28 14cout29 14cout30 	12cout0 12cout1 12cout2 12cout3 12cout4 12cout5 12cout6 12cout7 12cout8 12cout9 12cout10 12cout11 12cout12 12cout13 12cout14 12cout15 12cout16 12cout17 12cout18 12cout19 12cout20 12cout21 12cout22 12cout23 12cout24 12cout25 12cout26 12cout27 12cout28 12cout29 12cout30 	13out0 13out1 13out2 13out3 13out4 13out5 13out6 13out7 13out8 13out9 13out10 13out11 13out12 13out13 13out14 13out15 13out16 13out17 13out18 13out19 13out20 13out21 13out22 13out23 13out24 13out25 13out26 13out27 13out28 13out29 13out30 	12sum1 12sum2 12sum3 12sum4 12sum5 12sum6 12sum7 12sum8 12sum9 12sum10 12sum11 12sum12 12sum13 12sum14 12sum15 12sum16 12sum17 12sum18 12sum19 12sum20 12sum21 12sum22 12sum23 12sum24 12sum25 12sum26 12sum27 12sum28 12sum29 12sum30 11out31 		ADD_ARRAY_SUB XX = XXX
xand_Level15	 0 vdd	15out0 15out1 15out2 15out3 15out4 15out5 15out6 15out7 15out8 15out9 15out10 15out11 15out12 15out13 15out14 15out15 15out16 15out17 15out18 15out19 15out20 15out21 15out22 15out23 15out24 15out25 15out26 15out27 15out28 15out29 15out30 15out31 	x0 x1 x2 x3 x4 x5 x6 x7 x8 x9 x10 x11 x12 x13 x14 x15 x16 x17 x18 x19 x20 x21 x22 x23 x24 x25 x26 x27 x28 x29 x30 x31 	y8	AND_ARRAY_SUB XX = XXX
xadd_Level16	 0 vdd	z8 16sum1 16sum2 16sum3 16sum4 16sum5 16sum6 16sum7 16sum8 16sum9 16sum10 16sum11 16sum12 16sum13 16sum14 16sum15 16sum16 16sum17 16sum18 16sum19 16sum20 16sum21 16sum22 16sum23 16sum24 16sum25 16sum26 16sum27 16sum28 16sum29 16sum30 	16cout0 16cout1 16cout2 16cout3 16cout4 16cout5 16cout6 16cout7 16cout8 16cout9 16cout10 16cout11 16cout12 16cout13 16cout14 16cout15 16cout16 16cout17 16cout18 16cout19 16cout20 16cout21 16cout22 16cout23 16cout24 16cout25 16cout26 16cout27 16cout28 16cout29 16cout30 	14cout0 14cout1 14cout2 14cout3 14cout4 14cout5 14cout6 14cout7 14cout8 14cout9 14cout10 14cout11 14cout12 14cout13 14cout14 14cout15 14cout16 14cout17 14cout18 14cout19 14cout20 14cout21 14cout22 14cout23 14cout24 14cout25 14cout26 14cout27 14cout28 14cout29 14cout30 	15out0 15out1 15out2 15out3 15out4 15out5 15out6 15out7 15out8 15out9 15out10 15out11 15out12 15out13 15out14 15out15 15out16 15out17 15out18 15out19 15out20 15out21 15out22 15out23 15out24 15out25 15out26 15out27 15out28 15out29 15out30 	14sum1 14sum2 14sum3 14sum4 14sum5 14sum6 14sum7 14sum8 14sum9 14sum10 14sum11 14sum12 14sum13 14sum14 14sum15 14sum16 14sum17 14sum18 14sum19 14sum20 14sum21 14sum22 14sum23 14sum24 14sum25 14sum26 14sum27 14sum28 14sum29 14sum30 13out31 		ADD_ARRAY_SUB XX = XXX
xand_Level17	 0 vdd	17out0 17out1 17out2 17out3 17out4 17out5 17out6 17out7 17out8 17out9 17out10 17out11 17out12 17out13 17out14 17out15 17out16 17out17 17out18 17out19 17out20 17out21 17out22 17out23 17out24 17out25 17out26 17out27 17out28 17out29 17out30 17out31 	x0 x1 x2 x3 x4 x5 x6 x7 x8 x9 x10 x11 x12 x13 x14 x15 x16 x17 x18 x19 x20 x21 x22 x23 x24 x25 x26 x27 x28 x29 x30 x31 	y9	AND_ARRAY_SUB XX = XXX
xadd_Level18	 0 vdd	z9 18sum1 18sum2 18sum3 18sum4 18sum5 18sum6 18sum7 18sum8 18sum9 18sum10 18sum11 18sum12 18sum13 18sum14 18sum15 18sum16 18sum17 18sum18 18sum19 18sum20 18sum21 18sum22 18sum23 18sum24 18sum25 18sum26 18sum27 18sum28 18sum29 18sum30 	18cout0 18cout1 18cout2 18cout3 18cout4 18cout5 18cout6 18cout7 18cout8 18cout9 18cout10 18cout11 18cout12 18cout13 18cout14 18cout15 18cout16 18cout17 18cout18 18cout19 18cout20 18cout21 18cout22 18cout23 18cout24 18cout25 18cout26 18cout27 18cout28 18cout29 18cout30 	16cout0 16cout1 16cout2 16cout3 16cout4 16cout5 16cout6 16cout7 16cout8 16cout9 16cout10 16cout11 16cout12 16cout13 16cout14 16cout15 16cout16 16cout17 16cout18 16cout19 16cout20 16cout21 16cout22 16cout23 16cout24 16cout25 16cout26 16cout27 16cout28 16cout29 16cout30 	17out0 17out1 17out2 17out3 17out4 17out5 17out6 17out7 17out8 17out9 17out10 17out11 17out12 17out13 17out14 17out15 17out16 17out17 17out18 17out19 17out20 17out21 17out22 17out23 17out24 17out25 17out26 17out27 17out28 17out29 17out30 	16sum1 16sum2 16sum3 16sum4 16sum5 16sum6 16sum7 16sum8 16sum9 16sum10 16sum11 16sum12 16sum13 16sum14 16sum15 16sum16 16sum17 16sum18 16sum19 16sum20 16sum21 16sum22 16sum23 16sum24 16sum25 16sum26 16sum27 16sum28 16sum29 16sum30 15out31 		ADD_ARRAY_SUB XX = XXX
xand_Level19	 0 vdd	19out0 19out1 19out2 19out3 19out4 19out5 19out6 19out7 19out8 19out9 19out10 19out11 19out12 19out13 19out14 19out15 19out16 19out17 19out18 19out19 19out20 19out21 19out22 19out23 19out24 19out25 19out26 19out27 19out28 19out29 19out30 19out31 	x0 x1 x2 x3 x4 x5 x6 x7 x8 x9 x10 x11 x12 x13 x14 x15 x16 x17 x18 x19 x20 x21 x22 x23 x24 x25 x26 x27 x28 x29 x30 x31 	y10	AND_ARRAY_SUB XX = XXX
xadd_Level20	 0 vdd	z10 20sum1 20sum2 20sum3 20sum4 20sum5 20sum6 20sum7 20sum8 20sum9 20sum10 20sum11 20sum12 20sum13 20sum14 20sum15 20sum16 20sum17 20sum18 20sum19 20sum20 20sum21 20sum22 20sum23 20sum24 20sum25 20sum26 20sum27 20sum28 20sum29 20sum30 	20cout0 20cout1 20cout2 20cout3 20cout4 20cout5 20cout6 20cout7 20cout8 20cout9 20cout10 20cout11 20cout12 20cout13 20cout14 20cout15 20cout16 20cout17 20cout18 20cout19 20cout20 20cout21 20cout22 20cout23 20cout24 20cout25 20cout26 20cout27 20cout28 20cout29 20cout30 	18cout0 18cout1 18cout2 18cout3 18cout4 18cout5 18cout6 18cout7 18cout8 18cout9 18cout10 18cout11 18cout12 18cout13 18cout14 18cout15 18cout16 18cout17 18cout18 18cout19 18cout20 18cout21 18cout22 18cout23 18cout24 18cout25 18cout26 18cout27 18cout28 18cout29 18cout30 	19out0 19out1 19out2 19out3 19out4 19out5 19out6 19out7 19out8 19out9 19out10 19out11 19out12 19out13 19out14 19out15 19out16 19out17 19out18 19out19 19out20 19out21 19out22 19out23 19out24 19out25 19out26 19out27 19out28 19out29 19out30 	18sum1 18sum2 18sum3 18sum4 18sum5 18sum6 18sum7 18sum8 18sum9 18sum10 18sum11 18sum12 18sum13 18sum14 18sum15 18sum16 18sum17 18sum18 18sum19 18sum20 18sum21 18sum22 18sum23 18sum24 18sum25 18sum26 18sum27 18sum28 18sum29 18sum30 17out31 		ADD_ARRAY_SUB XX = XXX
xand_Level21	 0 vdd	21out0 21out1 21out2 21out3 21out4 21out5 21out6 21out7 21out8 21out9 21out10 21out11 21out12 21out13 21out14 21out15 21out16 21out17 21out18 21out19 21out20 21out21 21out22 21out23 21out24 21out25 21out26 21out27 21out28 21out29 21out30 21out31 	x0 x1 x2 x3 x4 x5 x6 x7 x8 x9 x10 x11 x12 x13 x14 x15 x16 x17 x18 x19 x20 x21 x22 x23 x24 x25 x26 x27 x28 x29 x30 x31 	y11	AND_ARRAY_SUB XX = XXX
xadd_Level22	 0 vdd	z11 22sum1 22sum2 22sum3 22sum4 22sum5 22sum6 22sum7 22sum8 22sum9 22sum10 22sum11 22sum12 22sum13 22sum14 22sum15 22sum16 22sum17 22sum18 22sum19 22sum20 22sum21 22sum22 22sum23 22sum24 22sum25 22sum26 22sum27 22sum28 22sum29 22sum30 	22cout0 22cout1 22cout2 22cout3 22cout4 22cout5 22cout6 22cout7 22cout8 22cout9 22cout10 22cout11 22cout12 22cout13 22cout14 22cout15 22cout16 22cout17 22cout18 22cout19 22cout20 22cout21 22cout22 22cout23 22cout24 22cout25 22cout26 22cout27 22cout28 22cout29 22cout30 	20cout0 20cout1 20cout2 20cout3 20cout4 20cout5 20cout6 20cout7 20cout8 20cout9 20cout10 20cout11 20cout12 20cout13 20cout14 20cout15 20cout16 20cout17 20cout18 20cout19 20cout20 20cout21 20cout22 20cout23 20cout24 20cout25 20cout26 20cout27 20cout28 20cout29 20cout30 	21out0 21out1 21out2 21out3 21out4 21out5 21out6 21out7 21out8 21out9 21out10 21out11 21out12 21out13 21out14 21out15 21out16 21out17 21out18 21out19 21out20 21out21 21out22 21out23 21out24 21out25 21out26 21out27 21out28 21out29 21out30 	20sum1 20sum2 20sum3 20sum4 20sum5 20sum6 20sum7 20sum8 20sum9 20sum10 20sum11 20sum12 20sum13 20sum14 20sum15 20sum16 20sum17 20sum18 20sum19 20sum20 20sum21 20sum22 20sum23 20sum24 20sum25 20sum26 20sum27 20sum28 20sum29 20sum30 19out31 		ADD_ARRAY_SUB XX = XXX
xand_Level23	 0 vdd	23out0 23out1 23out2 23out3 23out4 23out5 23out6 23out7 23out8 23out9 23out10 23out11 23out12 23out13 23out14 23out15 23out16 23out17 23out18 23out19 23out20 23out21 23out22 23out23 23out24 23out25 23out26 23out27 23out28 23out29 23out30 23out31 	x0 x1 x2 x3 x4 x5 x6 x7 x8 x9 x10 x11 x12 x13 x14 x15 x16 x17 x18 x19 x20 x21 x22 x23 x24 x25 x26 x27 x28 x29 x30 x31 	y12	AND_ARRAY_SUB XX = XXX
xadd_Level24	 0 vdd	z12 24sum1 24sum2 24sum3 24sum4 24sum5 24sum6 24sum7 24sum8 24sum9 24sum10 24sum11 24sum12 24sum13 24sum14 24sum15 24sum16 24sum17 24sum18 24sum19 24sum20 24sum21 24sum22 24sum23 24sum24 24sum25 24sum26 24sum27 24sum28 24sum29 24sum30 	24cout0 24cout1 24cout2 24cout3 24cout4 24cout5 24cout6 24cout7 24cout8 24cout9 24cout10 24cout11 24cout12 24cout13 24cout14 24cout15 24cout16 24cout17 24cout18 24cout19 24cout20 24cout21 24cout22 24cout23 24cout24 24cout25 24cout26 24cout27 24cout28 24cout29 24cout30 	22cout0 22cout1 22cout2 22cout3 22cout4 22cout5 22cout6 22cout7 22cout8 22cout9 22cout10 22cout11 22cout12 22cout13 22cout14 22cout15 22cout16 22cout17 22cout18 22cout19 22cout20 22cout21 22cout22 22cout23 22cout24 22cout25 22cout26 22cout27 22cout28 22cout29 22cout30 	23out0 23out1 23out2 23out3 23out4 23out5 23out6 23out7 23out8 23out9 23out10 23out11 23out12 23out13 23out14 23out15 23out16 23out17 23out18 23out19 23out20 23out21 23out22 23out23 23out24 23out25 23out26 23out27 23out28 23out29 23out30 	22sum1 22sum2 22sum3 22sum4 22sum5 22sum6 22sum7 22sum8 22sum9 22sum10 22sum11 22sum12 22sum13 22sum14 22sum15 22sum16 22sum17 22sum18 22sum19 22sum20 22sum21 22sum22 22sum23 22sum24 22sum25 22sum26 22sum27 22sum28 22sum29 22sum30 21out31 		ADD_ARRAY_SUB XX = XXX
xand_Level25	 0 vdd	25out0 25out1 25out2 25out3 25out4 25out5 25out6 25out7 25out8 25out9 25out10 25out11 25out12 25out13 25out14 25out15 25out16 25out17 25out18 25out19 25out20 25out21 25out22 25out23 25out24 25out25 25out26 25out27 25out28 25out29 25out30 25out31 	x0 x1 x2 x3 x4 x5 x6 x7 x8 x9 x10 x11 x12 x13 x14 x15 x16 x17 x18 x19 x20 x21 x22 x23 x24 x25 x26 x27 x28 x29 x30 x31 	y13	AND_ARRAY_SUB XX = XXX
xadd_Level26	 0 vdd	z13 26sum1 26sum2 26sum3 26sum4 26sum5 26sum6 26sum7 26sum8 26sum9 26sum10 26sum11 26sum12 26sum13 26sum14 26sum15 26sum16 26sum17 26sum18 26sum19 26sum20 26sum21 26sum22 26sum23 26sum24 26sum25 26sum26 26sum27 26sum28 26sum29 26sum30 	26cout0 26cout1 26cout2 26cout3 26cout4 26cout5 26cout6 26cout7 26cout8 26cout9 26cout10 26cout11 26cout12 26cout13 26cout14 26cout15 26cout16 26cout17 26cout18 26cout19 26cout20 26cout21 26cout22 26cout23 26cout24 26cout25 26cout26 26cout27 26cout28 26cout29 26cout30 	24cout0 24cout1 24cout2 24cout3 24cout4 24cout5 24cout6 24cout7 24cout8 24cout9 24cout10 24cout11 24cout12 24cout13 24cout14 24cout15 24cout16 24cout17 24cout18 24cout19 24cout20 24cout21 24cout22 24cout23 24cout24 24cout25 24cout26 24cout27 24cout28 24cout29 24cout30 	25out0 25out1 25out2 25out3 25out4 25out5 25out6 25out7 25out8 25out9 25out10 25out11 25out12 25out13 25out14 25out15 25out16 25out17 25out18 25out19 25out20 25out21 25out22 25out23 25out24 25out25 25out26 25out27 25out28 25out29 25out30 	24sum1 24sum2 24sum3 24sum4 24sum5 24sum6 24sum7 24sum8 24sum9 24sum10 24sum11 24sum12 24sum13 24sum14 24sum15 24sum16 24sum17 24sum18 24sum19 24sum20 24sum21 24sum22 24sum23 24sum24 24sum25 24sum26 24sum27 24sum28 24sum29 24sum30 23out31 		ADD_ARRAY_SUB XX = XXX
xand_Level27	 0 vdd	27out0 27out1 27out2 27out3 27out4 27out5 27out6 27out7 27out8 27out9 27out10 27out11 27out12 27out13 27out14 27out15 27out16 27out17 27out18 27out19 27out20 27out21 27out22 27out23 27out24 27out25 27out26 27out27 27out28 27out29 27out30 27out31 	x0 x1 x2 x3 x4 x5 x6 x7 x8 x9 x10 x11 x12 x13 x14 x15 x16 x17 x18 x19 x20 x21 x22 x23 x24 x25 x26 x27 x28 x29 x30 x31 	y14	AND_ARRAY_SUB XX = XXX
xadd_Level28	 0 vdd	z14 28sum1 28sum2 28sum3 28sum4 28sum5 28sum6 28sum7 28sum8 28sum9 28sum10 28sum11 28sum12 28sum13 28sum14 28sum15 28sum16 28sum17 28sum18 28sum19 28sum20 28sum21 28sum22 28sum23 28sum24 28sum25 28sum26 28sum27 28sum28 28sum29 28sum30 	28cout0 28cout1 28cout2 28cout3 28cout4 28cout5 28cout6 28cout7 28cout8 28cout9 28cout10 28cout11 28cout12 28cout13 28cout14 28cout15 28cout16 28cout17 28cout18 28cout19 28cout20 28cout21 28cout22 28cout23 28cout24 28cout25 28cout26 28cout27 28cout28 28cout29 28cout30 	26cout0 26cout1 26cout2 26cout3 26cout4 26cout5 26cout6 26cout7 26cout8 26cout9 26cout10 26cout11 26cout12 26cout13 26cout14 26cout15 26cout16 26cout17 26cout18 26cout19 26cout20 26cout21 26cout22 26cout23 26cout24 26cout25 26cout26 26cout27 26cout28 26cout29 26cout30 	27out0 27out1 27out2 27out3 27out4 27out5 27out6 27out7 27out8 27out9 27out10 27out11 27out12 27out13 27out14 27out15 27out16 27out17 27out18 27out19 27out20 27out21 27out22 27out23 27out24 27out25 27out26 27out27 27out28 27out29 27out30 	26sum1 26sum2 26sum3 26sum4 26sum5 26sum6 26sum7 26sum8 26sum9 26sum10 26sum11 26sum12 26sum13 26sum14 26sum15 26sum16 26sum17 26sum18 26sum19 26sum20 26sum21 26sum22 26sum23 26sum24 26sum25 26sum26 26sum27 26sum28 26sum29 26sum30 25out31 		ADD_ARRAY_SUB XX = XXX
xand_Level29	 0 vdd	29out0 29out1 29out2 29out3 29out4 29out5 29out6 29out7 29out8 29out9 29out10 29out11 29out12 29out13 29out14 29out15 29out16 29out17 29out18 29out19 29out20 29out21 29out22 29out23 29out24 29out25 29out26 29out27 29out28 29out29 29out30 29out31 	x0 x1 x2 x3 x4 x5 x6 x7 x8 x9 x10 x11 x12 x13 x14 x15 x16 x17 x18 x19 x20 x21 x22 x23 x24 x25 x26 x27 x28 x29 x30 x31 	y15	AND_ARRAY_SUB XX = XXX